Version 4
SHEET 1 880 680
WIRE 208 -208 144 -208
WIRE 320 -208 272 -208
WIRE 496 -208 320 -208
WIRE 320 -192 320 -208
WIRE -336 -144 -592 -144
WIRE -160 -144 -288 -144
WIRE -288 -112 -288 -144
WIRE -240 -112 -288 -112
WIRE -160 -96 -160 -144
WIRE -160 -96 -176 -96
WIRE -112 -96 -160 -96
WIRE -16 -96 -48 -96
WIRE 144 -96 144 -208
WIRE 144 -96 64 -96
WIRE 208 -96 144 -96
WIRE 320 -96 320 -112
WIRE 320 -96 272 -96
WIRE 400 -96 320 -96
WIRE -592 -80 -592 -144
WIRE -528 -80 -592 -80
WIRE -416 -80 -464 -80
WIRE -240 -80 -416 -80
WIRE 496 -80 496 -208
WIRE 496 -80 464 -80
WIRE 528 -80 496 -80
WIRE -416 -64 -416 -80
WIRE 400 -64 368 -64
WIRE 144 -48 144 -96
WIRE 496 -48 496 -80
WIRE -592 -32 -592 -80
WIRE 368 48 368 -64
WIRE 496 48 496 32
WIRE 496 48 368 48
WIRE -592 64 -592 48
WIRE 496 64 496 48
WIRE 496 144 96 144
WIRE -416 224 -416 16
WIRE 96 224 96 144
WIRE 96 224 -416 224
WIRE 112 224 96 224
WIRE 112 320 112 304
FLAG -592 64 0
FLAG 528 -80 out
IOPIN 528 -80 Out
FLAG 112 320 0
FLAG 144 32 0
SYMBOL OpAmps\\opamp 432 -144 R0
WINDOW 0 -31 112 Left 2
SYMATTR InstName OpA
SYMBOL voltage -592 -48 R0
WINDOW 123 -87 121 Left 2
WINDOW 39 0 0 Left 0
WINDOW 0 -100 11 Left 2
WINDOW 3 -225 45 Left 2
SYMATTR Value2 AC 1
SYMATTR InstName Vin
SYMATTR Value SINE(0 0.1 50)
SYMBOL voltage 112 208 R0
WINDOW 123 24 124 Left 2
WINDOW 39 0 0 Left 0
SYMATTR InstName Vgnd
SYMATTR Value 1.5
SYMBOL res 80 -112 R90
WINDOW 0 0 56 VBottom 2
WINDOW 3 32 56 VTop 2
SYMATTR InstName R1
SYMATTR Value 12.1k
SYMBOL cap 272 -112 R90
WINDOW 0 0 32 VBottom 2
WINDOW 3 32 32 VTop 2
SYMATTR InstName C2
SYMATTR Value 33n
SYMBOL cap 272 -224 R90
WINDOW 0 0 32 VBottom 2
WINDOW 3 32 32 VTop 2
SYMATTR InstName C1
SYMATTR Value 33n
SYMBOL res -432 -80 R0
SYMATTR InstName R4
SYMATTR Value 1Meg
SYMBOL cap -464 -96 R90
WINDOW 0 0 32 VBottom 2
WINDOW 3 32 32 VTop 2
SYMATTR InstName C4
SYMATTR Value 53p
SYMBOL res 304 -208 R0
SYMATTR InstName R2
SYMATTR Value 965k
SYMBOL res 480 -64 R0
SYMATTR InstName R3
SYMATTR Value 437k
SYMBOL res 480 48 R0
SYMATTR InstName R5
SYMATTR Value 5.23k
SYMBOL res 128 -64 R0
SYMATTR InstName R6
SYMATTR Value 46.9k
SYMBOL OpAmps\\opamp -208 -160 R0
WINDOW 0 -31 112 Left 2
SYMATTR InstName OpA1
SYMBOL cap -48 -112 R90
WINDOW 0 0 32 VBottom 2
WINDOW 3 32 32 VTop 2
SYMATTR InstName C3
SYMATTR Value 1µ
TEXT 304 176 Left 2 !.lib opamp.sub
TEXT 304 232 Left 2 !.ac dec 100 1 10k
TEXT -128 -280 Left 3 ;Multiple-Feedback Bandpass Filter with Gain
