Version 4
SHEET 1 880 680
WIRE 208 -208 112 -208
WIRE 304 -208 272 -208
WIRE 496 -208 304 -208
WIRE 304 -192 304 -208
WIRE -112 -96 -144 -96
WIRE -16 -96 -48 -96
WIRE 112 -96 112 -208
WIRE 112 -96 64 -96
WIRE 208 -96 112 -96
WIRE 304 -96 304 -112
WIRE 304 -96 272 -96
WIRE 400 -96 304 -96
WIRE 112 -80 112 -96
WIRE 496 -80 496 -208
WIRE 496 -80 464 -80
WIRE 528 -80 496 -80
WIRE 400 -64 352 -64
WIRE 352 -48 352 -64
WIRE 112 16 112 0
WIRE -128 224 -128 208
WIRE 112 224 112 208
WIRE -128 320 -128 304
WIRE 112 320 112 304
FLAG -128 320 0
FLAG -128 208 in
IOPIN -128 208 In
FLAG 352 -48 V_GND
IOPIN 352 -48 In
FLAG -144 -96 in
IOPIN -144 -96 In
FLAG 528 -80 out
IOPIN 528 -80 Out
FLAG 112 320 0
FLAG 112 208 V_GND
IOPIN 112 208 Out
FLAG 112 16 0
SYMBOL OpAmps\\opamp 432 -144 R0
WINDOW 0 -31 112 Left 2
SYMATTR InstName OpA
SYMBOL voltage -128 208 R0
WINDOW 123 24 124 Left 2
WINDOW 39 0 0 Left 0
SYMATTR Value2 AC 1
SYMATTR InstName Vin
SYMATTR Value SINE(0 1m 50)
SYMBOL cap -48 -112 R90
WINDOW 0 0 32 VBottom 2
WINDOW 3 32 32 VTop 2
SYMATTR InstName C3
SYMATTR Value 10µ
SYMBOL voltage 112 208 R0
WINDOW 123 24 124 Left 2
WINDOW 39 0 0 Left 0
SYMATTR InstName Vgnd
SYMATTR Value 1.5
SYMBOL res 80 -112 R90
WINDOW 0 0 56 VBottom 2
WINDOW 3 32 56 VTop 2
SYMATTR InstName R1
SYMATTR Value 5.1k
SYMBOL cap 272 -112 R90
WINDOW 0 0 32 VBottom 2
WINDOW 3 32 32 VTop 2
SYMATTR InstName C2
SYMATTR Value 330n
SYMBOL res 96 -96 R0
SYMATTR InstName R2
SYMATTR Value 7.5k
SYMBOL res 288 -208 R0
SYMATTR InstName R3
SYMATTR Value 560k
SYMBOL cap 272 -224 R90
WINDOW 0 0 32 VBottom 2
WINDOW 3 32 32 VTop 2
SYMATTR InstName C1
SYMATTR Value 18n
TEXT 304 176 Left 2 !.lib opamp.sub
TEXT 304 232 Left 2 !.ac dec 100 1 100k
TEXT -128 -280 Left 3 ;Multiple-Feedback Bandpass Filter with Gain
