Version 4
SHEET 1 1452 680
WIRE 1152 -272 1008 -272
WIRE 1312 -272 1152 -272
WIRE 1152 -240 1152 -272
WIRE 96 -208 -112 -208
WIRE 1008 -192 1008 -272
WIRE -112 -176 -112 -208
WIRE 1152 -144 1152 -160
WIRE 1248 -144 1152 -144
WIRE 1312 -144 1248 -144
WIRE 1152 -128 1152 -144
WIRE 1248 -128 1248 -144
WIRE 32 -96 32 -112
WIRE -544 -80 -592 -80
WIRE -416 -80 -464 -80
WIRE -384 -80 -416 -80
WIRE -288 -80 -320 -80
WIRE -176 -80 -288 -80
WIRE -112 -80 -112 -96
WIRE 0 -80 -112 -80
WIRE -288 -64 -288 -80
WIRE 96 -64 96 -208
WIRE 96 -64 64 -64
WIRE 128 -64 96 -64
WIRE 240 -64 208 -64
WIRE -416 -48 -416 -80
WIRE -176 -48 -176 -80
WIRE 0 -48 -176 -48
WIRE -592 -32 -592 -80
WIRE -112 -32 -112 -80
WIRE 240 -32 240 -64
WIRE 32 -16 32 -32
WIRE 1008 -16 1008 -112
WIRE 1152 -16 1152 -48
WIRE 1248 -16 1248 -64
WIRE -288 32 -288 16
WIRE -112 64 -112 48
WIRE -592 144 -592 48
WIRE -416 144 -416 16
WIRE -112 144 -112 128
WIRE 240 144 240 32
FLAG -592 144 0
FLAG 32 -16 0
FLAG 1008 -16 0
FLAG 1152 -16 0
FLAG 1248 -16 0
FLAG 1312 -272 VCC
IOPIN 1312 -272 BiDir
FLAG 1312 -144 V_GND
IOPIN 1312 -144 BiDir
FLAG -288 32 V_GND
IOPIN -288 32 BiDir
FLAG 32 -112 VCC
IOPIN 32 -112 BiDir
FLAG -416 144 0
FLAG 240 144 0
FLAG -112 144 0
SYMBOL voltage -592 -48 R0
WINDOW 123 -93 89 Left 2
WINDOW 39 0 0 Left 0
WINDOW 0 -88 18 Left 2
WINDOW 3 -248 53 Left 2
SYMATTR Value2 AC 1
SYMATTR InstName Vin
SYMATTR Value SINE(0 0.001 50)
SYMBOL res -448 -64 M270
WINDOW 0 32 56 VTop 2
WINDOW 3 0 56 VBottom 2
SYMATTR InstName R4
SYMATTR Value 18k
SYMBOL cap -400 16 R180
WINDOW 0 24 56 Left 2
WINDOW 3 24 8 Left 2
SYMATTR InstName C4
SYMATTR Value 100n
SYMBOL Opamps\\LT6002 32 -64 R0
WINDOW 3 -34 89 Left 2
SYMATTR InstName U1
SYMBOL voltage 1008 -208 R0
WINDOW 123 24 124 Left 2
WINDOW 39 0 0 Left 0
SYMATTR InstName VCC
SYMATTR Value 3.3
SYMBOL res 1136 -256 R0
SYMATTR InstName R5
SYMATTR Value 10k
SYMBOL res 1136 -144 R0
SYMATTR InstName R6
SYMATTR Value 10k
SYMBOL cap 1232 -128 R0
SYMATTR InstName C3
SYMATTR Value 1n
SYMBOL cap -320 -96 R90
WINDOW 0 0 32 VBottom 2
WINDOW 3 32 32 VTop 2
SYMATTR InstName C5
SYMATTR Value 10µ
SYMBOL res -128 -48 R0
SYMATTR InstName R1
SYMATTR Value 1k
SYMBOL res -128 -192 R0
SYMATTR InstName R2
SYMATTR Value 1Meg
SYMBOL res 224 -48 M270
WINDOW 0 32 56 VTop 2
WINDOW 3 0 56 VBottom 2
SYMATTR InstName R7
SYMATTR Value 10k
SYMBOL cap 256 32 R180
WINDOW 0 24 56 Left 2
WINDOW 3 28 13 Left 2
SYMATTR InstName C1
SYMATTR Value 100n
SYMBOL res -304 -80 R0
SYMATTR InstName R3
SYMATTR Value 100k
SYMBOL cap -96 128 R180
WINDOW 0 24 56 Left 2
WINDOW 3 24 8 Left 2
SYMATTR InstName C2
SYMATTR Value 10µ
TEXT -32 88 Left 2 !.lib opamp.sub
TEXT -32 144 Left 2 !.ac dec 100 1 10k
TEXT -600 -256 Left 3 ;Multiple-Feedback Band-Pass Filter with Gain
