Version 4
SHEET 1 900 680
WIRE -304 -128 -512 -128
WIRE -304 -96 -304 -128
WIRE 304 16 112 16
WIRE -304 32 -304 -16
WIRE -304 32 -400 32
WIRE -32 32 -304 32
WIRE 304 32 304 16
WIRE -32 64 -32 32
WIRE -400 96 -400 32
WIRE -304 96 -304 32
WIRE -512 160 -512 -128
WIRE 112 160 112 16
WIRE 176 160 112 160
WIRE 304 176 304 112
WIRE 304 176 240 176
WIRE 368 176 304 176
WIRE 528 176 448 176
WIRE 672 176 592 176
WIRE 784 176 672 176
WIRE 896 176 784 176
WIRE -160 192 -224 192
WIRE -32 192 -32 144
WIRE -32 192 -96 192
WIRE 176 192 -32 192
WIRE -400 208 -400 160
WIRE -304 208 -304 176
WIRE -304 208 -400 208
WIRE 784 208 784 176
WIRE 672 224 672 176
WIRE 112 240 112 160
WIRE -224 256 -224 192
WIRE 112 352 112 320
WIRE -512 432 -512 240
WIRE -400 432 -400 208
WIRE -400 432 -512 432
WIRE -224 432 -224 336
WIRE -224 432 -400 432
WIRE 112 432 112 416
WIRE 112 432 -224 432
WIRE 672 432 672 288
WIRE 672 432 112 432
WIRE 784 432 784 288
WIRE 784 432 672 432
WIRE 112 448 112 432
FLAG 112 448 0
SYMBOL ZHAW\\Symbole\\IdealOpamp 208 112 R0
SYMATTR InstName U1
SYMBOL res 288 16 R0
SYMATTR InstName R1
SYMATTR Value 2Meg
SYMBOL res 96 224 R0
SYMATTR InstName R2
SYMATTR Value 1k
SYMBOL cap 96 352 R0
SYMATTR InstName C1
SYMATTR Value 100n
SYMBOL res -48 48 R0
SYMATTR InstName R3
SYMATTR Value 1000000
SYMBOL voltage -224 240 R0
WINDOW 123 0 0 Left 0
WINDOW 39 0 0 Left 0
SYMATTR InstName V1
SYMATTR Value SINE(0 0.02 50 0)
SYMBOL res -320 80 R0
SYMATTR InstName R4
SYMATTR Value 10k
SYMBOL res -320 -112 R0
SYMATTR InstName R5
SYMATTR Value 10k
SYMBOL cap -416 96 R0
SYMATTR InstName C2
SYMATTR Value 100n
SYMBOL voltage -512 144 R0
WINDOW 123 0 0 Left 0
WINDOW 39 0 0 Left 0
SYMATTR InstName V2
SYMATTR Value 3
SYMBOL cap -160 176 M90
WINDOW 0 0 32 VBottom 2
WINDOW 3 32 32 VTop 2
SYMATTR InstName C3
SYMATTR Value 1n
SYMBOL res 464 160 R90
WINDOW 0 0 56 VBottom 2
WINDOW 3 32 56 VTop 2
SYMATTR InstName R6
SYMATTR Value 100
SYMBOL cap 656 224 R0
SYMATTR InstName C4
SYMATTR Value 1n
SYMBOL cap 592 160 R90
WINDOW 0 0 32 VBottom 2
WINDOW 3 32 32 VTop 2
SYMATTR InstName C5
SYMATTR Value 1n
SYMBOL res 768 192 R0
SYMATTR InstName R7
SYMATTR Value 1000
TEXT -416 472 Left 2 !.tran 0.5
