Version 4
SHEET 1 1140 680
WIRE -672 -128 -880 -128
WIRE -672 -96 -672 -128
WIRE 304 16 112 16
WIRE -672 32 -672 -16
WIRE -672 32 -768 32
WIRE -32 32 -672 32
WIRE 304 32 304 16
WIRE -32 64 -32 32
WIRE -768 96 -768 32
WIRE -672 96 -672 32
WIRE -880 160 -880 -128
WIRE 112 160 112 16
WIRE 176 160 112 160
WIRE 304 176 304 112
WIRE 304 176 240 176
WIRE 368 176 304 176
WIRE -528 192 -592 192
WIRE -320 192 -448 192
WIRE -160 192 -320 192
WIRE -32 192 -32 144
WIRE -32 192 -96 192
WIRE 176 192 -32 192
WIRE -768 208 -768 160
WIRE -672 208 -672 176
WIRE -672 208 -768 208
WIRE -320 240 -320 192
WIRE 112 240 112 160
WIRE -592 256 -592 192
WIRE 112 352 112 320
WIRE -880 432 -880 240
WIRE -768 432 -768 208
WIRE -768 432 -880 432
WIRE -592 432 -592 336
WIRE -592 432 -768 432
WIRE -320 432 -320 304
WIRE -320 432 -592 432
WIRE 112 432 112 416
WIRE 112 432 -320 432
WIRE 112 448 112 432
FLAG 112 448 0
SYMBOL ZHAW\\Symbole\\IdealOpamp 208 112 R0
SYMATTR InstName U1
SYMBOL res 288 16 R0
SYMATTR InstName R1
SYMATTR Value 200k
SYMBOL res 96 224 R0
SYMATTR InstName R2
SYMATTR Value 1k
SYMBOL cap 96 352 R0
SYMATTR InstName C1
SYMATTR Value 10µ
SYMBOL res -48 48 R0
SYMATTR InstName R3
SYMATTR Value 1000000
SYMBOL voltage -592 240 R0
WINDOW 123 0 0 Left 0
WINDOW 39 0 0 Left 0
SYMATTR InstName V1
SYMATTR Value SINE(0 0.02 50 0)
SYMBOL res -688 80 R0
SYMATTR InstName R4
SYMATTR Value 10k
SYMBOL res -688 -112 R0
SYMATTR InstName R5
SYMATTR Value 10k
SYMBOL cap -784 96 R0
SYMATTR InstName C2
SYMATTR Value 100n
SYMBOL voltage -880 144 R0
WINDOW 123 0 0 Left 0
WINDOW 39 0 0 Left 0
SYMATTR InstName V2
SYMATTR Value 3
SYMBOL cap -160 176 M90
WINDOW 0 0 32 VBottom 2
WINDOW 3 32 32 VTop 2
SYMATTR InstName C3
SYMATTR Value 1n
SYMBOL res -432 176 R90
WINDOW 0 0 56 VBottom 2
WINDOW 3 32 56 VTop 2
SYMATTR InstName R6
SYMATTR Value 27k
SYMBOL cap -336 240 R0
SYMATTR InstName C4
SYMATTR Value 100n
TEXT -784 472 Left 2 !.tran 0.5
